.model Dbreak D Is=1e-14 Cjo=.1pF Rs=.1 Vj=0.0000000000000001V 
*$
.model Dideal D Is=1e-14 n=0.001 
*$
